Program Version,EnergyPlus, Version 8.4.0-09f5359d8a, YMD=2020.01.31 11:13,IDD_Version 8.4.0
Var Type (reported time step),Var Report Type,Variable Name [Units]
Zone,Meter,0:InteriorEquipment:Electricity [J]
Zone,Meter,Carbon Equivalent:Facility [kg]
Zone,Meter,CarbonEquivalentEmissions:Carbon Equivalent [kg]
Zone,Meter,Cogeneration:ElectricityNet [J]
Zone,Meter,Cogeneration:ElectricityPurchased [J]
Zone,Meter,Cogeneration:ElectricitySurplusSold [J]
Zone,Meter,Cooling:DistrictCooling [J]
Zone,Meter,Cooling:EnergyTransfer [J]
Zone,Meter,Cooling:EnergyTransfer:Zone:FLEXLAB-XR-ELECROOM-ZONEA [J]
Zone,Meter,Cooling:EnergyTransfer:Zone:FLEXLAB-XR-ELECROOM-ZONEB [J]
Zone,Meter,Cooling:EnergyTransfer:Zone:FLEXLAB-XR-MECHROOM-ZONEA [J]
Zone,Meter,Cooling:EnergyTransfer:Zone:FLEXLAB-XR-MECHROOM-ZONEB [J]
Zone,Meter,Cooling:EnergyTransfer:Zone:FLEXLAB-XR-PLNMA [J]
Zone,Meter,Cooling:EnergyTransfer:Zone:FLEXLAB-XR-PLNMB [J]
Zone,Meter,Cooling:EnergyTransfer:Zone:FLEXLAB-XR-ZONEA [J]
Zone,Meter,Cooling:EnergyTransfer:Zone:FLEXLAB-XR-ZONEB [J]
Zone,Meter,CoolingCoils:EnergyTransfer [J]
Zone,Meter,CoolingCoils:PlantLoopCoolingDemand [J]
Zone,Meter,DistrictCooling:Facility [J]
Zone,Meter,DistrictCooling:Plant [J]
Zone,Meter,DistrictHeating:Facility [J]
Zone,Meter,DistrictHeating:Plant [J]
Zone,Meter,Electricity:Building [J]
Zone,Meter,Electricity:Facility [J]
Zone,Meter,Electricity:HVAC [J]
Zone,Meter,Electricity:Plant [J]
Zone,Meter,Electricity:Zone:FLEXLAB-XR-ZONEA [J]
Zone,Meter,Electricity:Zone:FLEXLAB-XR-ZONEB [J]
Zone,Meter,ElectricityNet:Facility [J]
Zone,Meter,ElectricityNet:Plant [J]
Zone,Meter,ElectricityPurchased:Facility [J]
Zone,Meter,ElectricityPurchased:Plant [J]
Zone,Meter,ElectricitySurplusSold:Facility [J]
Zone,Meter,ElectricitySurplusSold:Plant [J]
Zone,Meter,EnergyTransfer:Building [J]
Zone,Meter,EnergyTransfer:Facility [J]
Zone,Meter,EnergyTransfer:HVAC [J]
Zone,Meter,EnergyTransfer:Zone:FLEXLAB-XR-ELECROOM-ZONEA [J]
Zone,Meter,EnergyTransfer:Zone:FLEXLAB-XR-ELECROOM-ZONEB [J]
Zone,Meter,EnergyTransfer:Zone:FLEXLAB-XR-MECHROOM-ZONEA [J]
Zone,Meter,EnergyTransfer:Zone:FLEXLAB-XR-MECHROOM-ZONEB [J]
Zone,Meter,EnergyTransfer:Zone:FLEXLAB-XR-PLNMA [J]
Zone,Meter,EnergyTransfer:Zone:FLEXLAB-XR-PLNMB [J]
Zone,Meter,EnergyTransfer:Zone:FLEXLAB-XR-ZONEA [J]
Zone,Meter,EnergyTransfer:Zone:FLEXLAB-XR-ZONEB [J]
Zone,Meter,Fans:Electricity [J]
Zone,Meter,General:Fans:Electricity [J]
Zone,Meter,GeneralLights:InteriorLights:Electricity [J]
Zone,Meter,Heating:DistrictHeating [J]
Zone,Meter,Heating:EnergyTransfer [J]
Zone,Meter,Heating:EnergyTransfer:Zone:FLEXLAB-XR-ELECROOM-ZONEA [J]
Zone,Meter,Heating:EnergyTransfer:Zone:FLEXLAB-XR-ELECROOM-ZONEB [J]
Zone,Meter,Heating:EnergyTransfer:Zone:FLEXLAB-XR-MECHROOM-ZONEA [J]
Zone,Meter,Heating:EnergyTransfer:Zone:FLEXLAB-XR-MECHROOM-ZONEB [J]
Zone,Meter,Heating:EnergyTransfer:Zone:FLEXLAB-XR-PLNMA [J]
Zone,Meter,Heating:EnergyTransfer:Zone:FLEXLAB-XR-PLNMB [J]
Zone,Meter,Heating:EnergyTransfer:Zone:FLEXLAB-XR-ZONEA [J]
Zone,Meter,Heating:EnergyTransfer:Zone:FLEXLAB-XR-ZONEB [J]
Zone,Meter,HeatingCoils:EnergyTransfer [J]
Zone,Meter,HeatingCoils:PlantLoopHeatingDemand [J]
Zone,Meter,InteriorEquipment:Electricity [J]
Zone,Meter,InteriorEquipment:Electricity:Zone:FLEXLAB-XR-ZONEA [J]
Zone,Meter,InteriorEquipment:Electricity:Zone:FLEXLAB-XR-ZONEB [J]
Zone,Meter,InteriorLights:Electricity [J]
Zone,Meter,InteriorLights:Electricity:Zone:FLEXLAB-XR-ZONEA [J]
Zone,Meter,InteriorLights:Electricity:Zone:FLEXLAB-XR-ZONEB [J]
Zone,Meter,PlantLoopCoolingDemand:Facility [J]
Zone,Meter,PlantLoopCoolingDemand:HVAC [J]
Zone,Meter,PlantLoopHeatingDemand:Facility [J]
Zone,Meter,PlantLoopHeatingDemand:HVAC [J]
Zone,Meter,Pumps:Electricity [J]
