<<<<<<< HEAD:Output_EPExport_Slave/HVAC_Sha_lig_fmu_AB.eio
Program Version,EnergyPlus, Version 8.5.0-c87e61b44b, YMD=2020.04.11 18:24
=======
Program Version,EnergyPlus, Version 8.4.0-09f5359d8a, YMD=2020.01.31 11:55
>>>>>>> f594090eec9e38d7a1ce252c1a762a24be9bc5f4:utilities/EPlusmodel/XR/economizer/test/FlexlabXR_csv_Eco.eio
! <Version>, Version ID
 Version, 8.4
! <Timesteps per Hour>, #TimeSteps, Minutes per TimeStep {minutes}
 Timesteps per Hour,  4, 15
! <System Convergence Limits>, Minimum System TimeStep {minutes}, Max HVAC Iterations, Minimum Plant Iterations, Maximum Plant Iterations
 System Convergence Limits, 1, 20, 2, 8
! <Simulation Control>, Do Zone Sizing, Do System Sizing, Do Plant Sizing, Do Design Days, Do Weather Simulation, Do HVAC Sizing Simulation
 Simulation Control, No, No, No, No, Yes, No
! <Output Reporting Tolerances>, Tolerance for Time Heating Setpoint Not Met, Tolerance for Zone Cooling Setpoint Not Met Time
 Output Reporting Tolerances, 0.200, 0.200, 
! <Site:GroundTemperature:BuildingSurface>, Months From Jan to Dec {C}
 Site:GroundTemperature:BuildingSurface,  22.00,  22.00,  22.00,  22.00,  22.00,  22.00,  22.00,  22.00,  22.00,  22.00,  22.00,  22.00
! <Site:GroundTemperature:FCfactorMethod>, Months From Jan to Dec {C}
 Site:GroundTemperature:FCfactorMethod,  10.07,  10.80,  12.21,  13.54,  16.07,  17.40,  17.77,  17.10,  15.54,  13.59,  11.68,  10.42
! <Site:GroundTemperature:Shallow>, Months From Jan to Dec {C}
 Site:GroundTemperature:Shallow,  13.00,  13.00,  13.00,  13.00,  13.00,  13.00,  13.00,  13.00,  13.00,  13.00,  13.00,  13.00
! <Site:GroundTemperature:Deep>, Months From Jan to Dec {C}
 Site:GroundTemperature:Deep,  16.00,  16.00,  16.00,  16.00,  16.00,  16.00,  16.00,  16.00,  16.00,  16.00,  16.00,  16.00
! <Site:GroundReflectance>, Months From Jan to Dec {dimensionless}
 Site:GroundReflectance,  0.20,  0.20,  0.20,  0.20,  0.20,  0.20,  0.20,  0.20,  0.20,  0.20,  0.20,  0.20
! <Site:GroundReflectance:SnowModifier>, Normal, Daylighting {dimensionless}
 Site:GroundReflectance:SnowModifier,   1.000,   1.000
! <Site:GroundReflectance:Snow>, Months From Jan to Dec {dimensionless}
 Site:GroundReflectance:Snow,  0.20,  0.20,  0.20,  0.20,  0.20,  0.20,  0.20,  0.20,  0.20,  0.20,  0.20,  0.20
! <Site:GroundReflectance:Snow:Daylighting>, Months From Jan to Dec {dimensionless}
 Site:GroundReflectance:Snow:Daylighting,  0.20,  0.20,  0.20,  0.20,  0.20,  0.20,  0.20,  0.20,  0.20,  0.20,  0.20,  0.20
! <Environment:Weather Station>,Wind Sensor Height Above Ground {m},Wind Speed Profile Exponent {},Wind Speed Profile Boundary Layer Thickness {m},Air Temperature Sensor Height Above Ground {m},Wind Speed Modifier Coefficient [Internal],Temperature Modifier Coefficient [Internal]
Environment:Weather Station,10.000,0.140,270.000,1.500,1.586,9.750E-003
! <Site:Location>, Location Name, Latitude {N+/S- Deg}, Longitude {E+/W- Deg},  Time Zone Number {GMT+/-}, Elevation {m},  Standard Pressure at Elevation {Pa}, Standard RhoAir at Elevation
Site:Location,CA_SAN-FRANCISCO-IAP - USA Custom-724940 WMO#=724940,37.62,-122.36,-8.00,5.00,101265,1.2036
! <Building Information>, Building Name,North Axis {deg},Terrain,  Loads Convergence Tolerance Value,Temperature Convergence Tolerance Value,  Solar Distribution,Maximum Number of Warmup Days,Minimum Number of Warmup Days
 Building Information,Office,0.000,Suburbs,4.00000E-002,0.40000,FullInteriorAndExteriorWithReflectionsFromExteriorSurfaces,30,6
! <Inside Convection Algorithm>, Algorithm {Simple | TARP | CeilingDiffuser | AdaptiveConvectionAlgorithm}
Inside Convection Algorithm,TARP
! <Outside Convection Algorithm>, Algorithm {SimpleCombined | TARP | MoWitt | DOE-2 | AdaptiveConvectionAlgorithm}
Outside Convection Algorithm,SimpleCombined
! <Sky Radiance Distribution>, Value {Anisotropic}
Sky Radiance Distribution,Anisotropic
! <Zone Air Solution Algorithm>, Value {ThirdOrderBackwardDifference | AnalyticalSolution | EulerMethod}
 Zone Air Solution Algorithm, ThirdOrderBackwardDifference
! <Zone Air Carbon Dioxide Balance Simulation>, Simulation {Yes/No}, Carbon Dioxide Concentration
 Zone Air Carbon Dioxide Balance Simulation, No,N/A
! <Zone Air Generic Contaminant Balance Simulation>, Simulation {Yes/No}, Generic Contaminant Concentration
 Zone Air Generic Contaminant Balance Simulation, No,N/A
! <Zone Air Mass Flow Balance Simulation>, Enforce Mass Balance, Adjust Zone Mixing, Adjust Zone Infiltration {AddInfiltration | AdjustInfiltration | None}, Infiltration Zones {MixingSourceZonesOnly | AllZones}
 Zone Air Mass Flow Balance Simulation, No,N/A,N/A,N/A
! <Environment:Site Atmospheric Variation>,Wind Speed Profile Exponent {},Wind Speed Profile Boundary Layer Thickness {m},Air Temperature Gradient Coefficient {K/m}
Environment:Site Atmospheric Variation,0.220,370.000,6.500000E-003
! <SurfaceGeometry>,Starting Corner,Vertex Input Direction,Coordinate System,Daylight Reference Point Coordinate System,Rectangular (Simple) Surface Coordinate System
 Surface Geometry,UpperLeftCorner,Counterclockwise,RelativeCoordinateSystem,RelativeCoordinateSystem,RelativeToZoneOrigin
! <ShadingProperty Reflectance>,Shading Surface Name,Shading Type,Diffuse Solar Reflectance, Diffuse Visible Reflectance,Surface Glazing Fraction,Surface Glazing Contruction
ShadingProperty Reflectance,MIDDLE FIN,Detached Shading:Building,0.20,0.20,0.00, N/A
ShadingProperty Reflectance,Mir-MIDDLE FIN,Detached Shading:Building,0.20,0.20,0.00, N/A
ShadingProperty Reflectance,WESTSIDE FIN,Detached Shading:Building,0.20,0.20,0.00, N/A
ShadingProperty Reflectance,Mir-WESTSIDE FIN,Detached Shading:Building,0.20,0.20,0.00, N/A
ShadingProperty Reflectance,EASTSIDE FIN,Detached Shading:Building,0.20,0.20,0.00, N/A
ShadingProperty Reflectance,Mir-EASTSIDE FIN,Detached Shading:Building,0.20,0.20,0.00, N/A
ShadingProperty Reflectance,PARAPET SOUTH,Detached Shading:Building,0.20,0.20,0.00, N/A
ShadingProperty Reflectance,Mir-PARAPET SOUTH,Detached Shading:Building,0.20,0.20,0.00, N/A
ShadingProperty Reflectance,PARAPET WEST,Detached Shading:Building,0.20,0.20,0.00, N/A
ShadingProperty Reflectance,Mir-PARAPET WEST,Detached Shading:Building,0.20,0.20,0.00, N/A
ShadingProperty Reflectance,PARAPET NORTH,Detached Shading:Building,0.20,0.20,0.00, N/A
ShadingProperty Reflectance,Mir-PARAPET NORTH,Detached Shading:Building,0.20,0.20,0.00, N/A
ShadingProperty Reflectance,PARAPET EAST,Detached Shading:Building,0.20,0.20,0.00, N/A
ShadingProperty Reflectance,Mir-PARAPET EAST,Detached Shading:Building,0.20,0.20,0.00, N/A
ShadingProperty Reflectance,FLEXLAX-X2 SHADE,Detached Shading:Building,0.35,0.35,0.00, N/A
ShadingProperty Reflectance,Mir-FLEXLAX-X2 SHADE,Detached Shading:Building,0.35,0.35,0.00, N/A
ShadingProperty Reflectance,FLEXLAX-X1 SHADE,Detached Shading:Building,0.20,0.20,0.00, N/A
ShadingProperty Reflectance,Mir-FLEXLAX-X1 SHADE,Detached Shading:Building,0.20,0.20,0.00, N/A
! <Surface Heat Transfer Algorithm>, Value {CTF - ConductionTransferFunction | EMPD - MoisturePenetrationDepthConductionTransferFunction | CondFD - ConductionFiniteDifference | HAMT - CombinedHeatAndMoistureFiniteElement} - Description,Inside Surface Max Temperature Limit{C}, Surface Convection Coefficient Lower Limit {W/m2-K}, Surface Convection Coefficient Upper Limit {W/m2-K}
Surface Heat Transfer Algorithm, CTF - ConductionTransferFunction,200,0.10,1000.0
! <Shading Summary>, Number of Fixed Detached Shades, Number of Building Detached Shades, Number of Attached Shades
 Shading Summary,0,18,0
! <Zone Summary>, Number of Zones, Number of Zone Surfaces, Number of SubSurfaces
 Zone Summary,8,106,10
! <Zone Information>,Zone Name,North Axis {deg},Origin X-Coordinate {m},Origin Y-Coordinate {m},Origin Z-Coordinate {m},Centroid X-Coordinate {m},Centroid Y-Coordinate {m},Centroid Z-Coordinate {m},Type,Zone Multiplier,Zone List Multiplier,Minimum X {m},Maximum X {m},Minimum Y {m},Maximum Y {m},Minimum Z {m},Maximum Z {m},Ceiling Height {m},Volume {m3},Zone Inside Convection Algorithm {Simple-Detailed-CeilingDiffuser-TrombeWall},Zone Outside Convection Algorithm {Simple-Detailed-Tarp-MoWitt-DOE-2-BLAST}, Floor Area {m2},Exterior Gross Wall Area {m2},Exterior Net Wall Area {m2},Exterior Window Area {m2}, Number of Surfaces, Number of SubSurfaces, Number of Shading SubSurfaces,  Part of Total Building Area
 Zone Information, FLEXLAB-XR-ELECROOM-ZONEA,0.0,0.00,0.00,0.00,3.81,10.52,1.83,1,1,1,3.04,4.68,9.32,11.61,0.00,3.66,3.66,11.94,TARP,Simple,3.26,14.38,10.80,0.00,10,1,0,Yes
 Zone Information, FLEXLAB-XR-ELECROOM-ZONEB,0.0,0.00,0.00,0.00,8.40,10.52,1.83,1,1,1,7.53,9.17,9.32,11.61,0.00,3.66,3.66,11.94,TARP,Simple,3.26,14.38,10.80,0.00,10,1,0,Yes
 Zone Information, FLEXLAB-XR-MECHROOM-ZONEA,0.0,0.00,0.00,0.00,5.21,10.40,1.83,1,1,1,4.20,6.10,9.32,11.61,0.00,3.66,3.66,13.74,TARP,Simple,3.76,5.21,5.21,0.00,12,1,0,Yes
 Zone Information, FLEXLAB-XR-MECHROOM-ZONEB,0.0,0.00,0.00,0.00,7.00,10.40,1.83,1,1,1,6.10,8.00,9.32,11.61,0.00,3.66,3.66,13.74,TARP,Simple,3.76,5.21,5.21,0.00,12,1,0,Yes
 Zone Information, FLEXLAB-XR-ZONEA,0.0,0.00,0.00,0.00,3.05,4.66,1.37,1,1,1,0.00,6.10,0.00,9.32,0.00,2.74,2.74,156.03,TARP,Simple,56.88,50.64,35.72,10.80,13,3,0,Yes
 Zone Information, FLEXLAB-XR-ZONEB,0.0,0.00,0.00,0.00,9.15,4.66,1.37,1,1,1,6.10,12.20,0.00,9.32,0.00,2.74,2.74,156.03,TARP,Simple,56.88,50.64,35.72,10.80,13,3,0,Yes
 Zone Information, FLEXLAB-XR-PLNMA,0.0,0.00,0.00,0.00,3.05,4.58,3.27,1,1,1,0.00,6.10,0.00,9.32,2.74,3.95,1.06,60.33,TARP,Simple,56.88,20.03,20.03,0.00,13,0,0,Yes
 Zone Information, FLEXLAB-XR-PLNMB,0.0,0.00,0.00,0.00,9.15,4.58,3.27,1,1,1,6.10,12.20,0.00,9.32,2.74,3.95,1.06,60.33,TARP,Simple,56.88,20.03,20.03,0.00,13,0,0,Yes
! <Zone Internal Gains/Equipment Information - Nominal>,Zone Name, Floor Area {m2},# Occupants,Area per Occupant {m2/person},Occupant per Area {person/m2},Interior Lighting {W/m2},Electric Load {W/m2},Gas Load {W/m2},Other Load {W/m2},Hot Water Eq {W/m2},Steam Equipment {W/m2},Sum Loads per Area {W/m2},Outdoor Controlled Baseboard Heat
 Zone Internal Gains, FLEXLAB-XR-ELECROOM-ZONEA,3.26,0.0,N/A,0.000,0.000,0.000,0.000,0.000,0.000,0.000,0.000,No
 Zone Internal Gains, FLEXLAB-XR-ELECROOM-ZONEB,3.26,0.0,N/A,0.000,0.000,0.000,0.000,0.000,0.000,0.000,0.000,No
 Zone Internal Gains, FLEXLAB-XR-MECHROOM-ZONEA,3.76,0.0,N/A,0.000,0.000,0.000,0.000,0.000,0.000,0.000,0.000,No
 Zone Internal Gains, FLEXLAB-XR-MECHROOM-ZONEB,3.76,0.0,N/A,0.000,0.000,0.000,0.000,0.000,0.000,0.000,0.000,No
 Zone Internal Gains, FLEXLAB-XR-ZONEA,56.88,3.8,15.000,6.667E-002,8.260,6.780,0.000,0.000,0.000,0.000,15.040,No
 Zone Internal Gains, FLEXLAB-XR-ZONEB,56.88,3.8,15.000,6.667E-002,8.260,6.780,0.000,0.000,0.000,0.000,15.040,No
 Zone Internal Gains, FLEXLAB-XR-PLNMA,56.88,0.0,N/A,0.000,0.000,0.000,0.000,0.000,0.000,0.000,0.000,No
 Zone Internal Gains, FLEXLAB-XR-PLNMB,56.88,0.0,N/A,0.000,0.000,0.000,0.000,0.000,0.000,0.000,0.000,No
! <People Internal Gains - Nominal>,Name,Schedule Name,Zone Name,Zone Floor Area {m2},# Zone Occupants,Number of People {},People/Floor Area {person/m2},Floor Area per person {m2/person},Fraction Radiant,Fraction Convected,Sensible Fraction Calculation,Activity level,ASHRAE 55 Warnings,Carbon Dioxide Generation Rate,Nominal Minimum Number of People,Nominal Maximum Number of People,MRT Calculation Type,Work Efficiency, Clothing Insulation Calculation Method,Clothing Insulation Calculation Method Schedule,Clothing,Air Velocity,Fanger Calculation,Pierce Calculation,KSU Calculation
 People Internal Gains, FLEXLAB-XR-ZONEA PEOPLE 1,OCC-SCHED,FLEXLAB-XR-ZONEA,56.88,3.8,3.8,6.667E-002,15.000,0.300,0.700,AutoCalculate,ACTIVITY-SCHED,No,3.8200E-008,0,4,Zone Averaged,WORK_EFF-SCHED,Clothing Insulation Schedule,N/A,CLOTHING-SCHED,AIR_VELO-SCHED,Yes,No,No
 People Internal Gains, FLEXLAB-XR-ZONEB PEOPLE 1,OCC-SCHED,FLEXLAB-XR-ZONEB,56.88,3.8,3.8,6.667E-002,15.000,0.300,0.700,AutoCalculate,ACTIVITY-SCHED,No,3.8200E-008,0,4,Zone Averaged,WORK_EFF-SCHED,Clothing Insulation Schedule,N/A,CLOTHING-SCHED,AIR_VELO-SCHED,Yes,No,No
! <Lights Internal Gains - Nominal>,Name,Schedule Name,Zone Name,Zone Floor Area {m2},# Zone Occupants,Lighting Level {W},Lights/Floor Area {W/m2},Lights per person {W/person},Fraction Return Air,Fraction Radiant,Fraction Short Wave,Fraction Convected,Fraction Replaceable,End-Use Category,Nominal Minimum Lighting Level {W},Nominal Maximum Lighting Level {W}
 Lights Internal Gains, FLEXLAB-XR-ZONEA LIGHTS,LIGHT_SCHED_A,FLEXLAB-XR-ZONEA,56.88,3.8,469.860,8.260,123.900,0.000,0.700,0.200,0.100,1.000,GeneralLights,469.860,469.860
 Lights Internal Gains, FLEXLAB-XR-ZONEB LIGHTS,LIGHT_SCHED_B,FLEXLAB-XR-ZONEB,56.88,3.8,469.860,8.260,123.900,0.000,0.700,0.200,0.100,1.000,GeneralLights,0.000,0.000
! <ElectricEquipment Internal Gains - Nominal>,Name,Schedule Name,Zone Name,Zone Floor Area {m2},# Zone Occupants,Equipment Level {W},Equipment/Floor Area {W/m2},Equipment per person {W/person},Fraction Latent,Fraction Radiant,Fraction Lost,Fraction Convected,End-Use SubCategory,Nominal Minimum Equipment Level {W},Nominal Maximum Equipment Level {W}
 ElectricEquipment Internal Gains, FLEXLAB-XR-ZONEA ELECEQ,EQUIP-SCHED,FLEXLAB-XR-ZONEA,56.88,3.8,385.672,6.780,101.700,0.000,0.500,0.000,0.500,0,0.000,385.672
 ElectricEquipment Internal Gains, FLEXLAB-XR-ZONEB ELECEQ,EQUIP-SCHED,FLEXLAB-XR-ZONEB,56.88,3.8,385.672,6.780,101.700,0.000,0.500,0.000,0.500,0,0.000,385.672
! <Shadowing/Sun Position Calculations> [Annual Simulations], Calculation Method, Value {days}, Allowable Number Figures in Shadow Overlap {}, Polygon Clipping Algorithm, Sky Diffuse Modeling Algorithm
Shadowing/Sun Position Calculations,AverageOverDaysInFrequency,20,50000,SutherlandHodgman,SimpleSkyDiffuseModeling
! <Infiltration Airflow Stats - Nominal>,Name,Schedule Name,Zone Name, Zone Floor Area {m2}, # Zone Occupants,Design Volume Flow Rate {m3/s},Volume Flow Rate/Floor Area {m3/s/m2},Volume Flow Rate/Exterior Surface Area {m3/s/m2},ACH - Air Changes per Hour,Equation A - Constant Term Coefficient {},Equation B - Temperature Term Coefficient {1/C},Equation C - Velocity Term Coefficient {s/m}, Equation D - Velocity Squared Term Coefficient {s2/m2}
 ZoneInfiltration Airflow Stats, FLEXLAB-XR-ZONEA INFIL,INFIL-SCHED,FLEXLAB-XR-ZONEA,56.88,3.8,1.637E-002,2.878E-004,3.020E-004,0.378,1.000,0.000,0.000,0.000
 ZoneInfiltration Airflow Stats, FLEXLAB-XR-ZONEB INFIL,INFIL-SCHED,FLEXLAB-XR-ZONEB,56.88,3.8,1.637E-002,2.878E-004,3.020E-004,0.378,1.000,0.000,0.000,0.000
! <AirFlow Model>, Simple
 AirFlow Model, Simple
! <RoomAir Model>, Zone Name, Mixing/Mundt/UCSDDV/UCSDCV/UCSDUFI/UCSDUFE/User Defined
RoomAir Model,FLEXLAB-XR-ELECROOM-ZONEA,Mixing/Well-Stirred
RoomAir Model,FLEXLAB-XR-ELECROOM-ZONEB,Mixing/Well-Stirred
RoomAir Model,FLEXLAB-XR-MECHROOM-ZONEA,Mixing/Well-Stirred
RoomAir Model,FLEXLAB-XR-MECHROOM-ZONEB,Mixing/Well-Stirred
RoomAir Model,FLEXLAB-XR-ZONEA,Mixing/Well-Stirred
RoomAir Model,FLEXLAB-XR-ZONEB,Mixing/Well-Stirred
RoomAir Model,FLEXLAB-XR-PLNMA,Mixing/Well-Stirred
RoomAir Model,FLEXLAB-XR-PLNMB,Mixing/Well-Stirred
! <AirflowNetwork Model:Control>, No Multizone or Distribution/Multizone with Distribution/Multizone without Distribution/Multizone with Distribution only during Fan Operation
AirflowNetwork Model:Control,NoMultizoneOrDistribution
! <Zone Volume Capacitance Multiplier>, Sensible Heat Capacity Multiplier, Moisture Capacity Multiplier, Carbon Dioxide Capacity Multiplier, Generic Contaminant Capacity Multiplier
Zone Volume Capacitance Multiplier,   1.000 ,   1.000,   1.000,   1.000
! <Component Sizing Information>, Component Type, Component Name, Input Field Description, Value
 Component Sizing Information, AirTerminal:SingleDuct:Uncontrolled, ZONE A DIRECT AIR, User-Specified Maximum Air Flow Rate [m3/s], 1.27426
 Component Sizing Information, AirTerminal:SingleDuct:Uncontrolled, ZONE B DIRECT AIR, User-Specified Maximum Air Flow Rate [m3/s], 1.27426
! <Water Cooling Coil Capacity Information>,Component Type,Name,Nominal Total Capacity {W},Nominal Sensible Capacity {W},Nominal Latent Capacity {W},Nominal Sensible Heat Ratio, Nominal Coil UA Value {W/C}, Nominal Coil Surface Area {m2}
Water Cooling Coil Capacity Information,Coil:Cooling:Water,SYS-A COOLING COIL,36708.76,24546.38,12162.38,0.67,5208.24,52.82
! <Water Heating Coil Capacity Information>,Component Type,Name,Nominal Total Capacity {W}
Water Heating Coil Capacity Information,Coil:Heating:Water,SYS-A HEATING COIL,24497.93
 Component Sizing Information, Fan:VariableVolume, SYS-A SUPPLY FAN, User-Specified Maximum Flow Rate [m3/s], 1.27426
Water Cooling Coil Capacity Information,Coil:Cooling:Water,SYS-B COOLING COIL,36708.76,24546.38,12162.38,0.67,5208.24,52.82
Water Heating Coil Capacity Information,Coil:Heating:Water,SYS-B HEATING COIL,24497.93
 Component Sizing Information, Fan:VariableVolume, SYS-B SUPPLY FAN, User-Specified Maximum Flow Rate [m3/s], 1.27426
 Component Sizing Information, PlantLoop, SYS-A SECONDARY CHILLED WATER LOOP, Plant Loop Volume [m3], 1.13562
 Component Sizing Information, DistrictCooling, SYS-A PURCHASED COOLING, User-Specified Nominal Capacity [W], 10000000.00000
 Component Sizing Information, PlantLoop, SYS-B SECONDARY CHILLED WATER LOOP, Plant Loop Volume [m3], 1.13562
 Component Sizing Information, DistrictCooling, SYS-B PURCHASED COOLING, User-Specified Nominal Capacity [W], 10000000.00000
 Component Sizing Information, PlantLoop, SYS-A SECONDARY HOT WATER LOOP, Plant Loop Volume [m3], 1.06465
 Component Sizing Information, DistrictHeating, SYS-A PURCHASED HEATING, User-Specified Nominal Capacity [W], 10000000.00000
 Component Sizing Information, PlantLoop, SYS-B SECONDARY HOT WATER LOOP, Plant Loop Volume [m3], 1.06465
 Component Sizing Information, DistrictHeating, SYS-B PURCHASED HEATING, User-Specified Nominal Capacity [W], 10000000.00000
! <Environment>,Environment Name,Environment Type, Start Date, End Date, Start DayOfWeek, Duration {#days}, Source:Start DayOfWeek,  Use Daylight Saving, Use Holidays, Apply Weekend Holiday Rule,  Use Rain Values, Use Snow Values
! <Environment:Special Days>, Special Day Name, Special Day Type, Source, Start Date, Duration {#days}
! <Environment:Daylight Saving>, Daylight Saving Indicator, Source, Start Date, End Date
! <Environment:WarmupDays>, NumberofWarmupDays
Environment,DATARUN,WeatherFileRunPeriod,01/01,12/31,Tuesday,365,UseWeatherFile,No,No,Yes,Yes,Yes
Environment:Daylight Saving,No,RunPeriod Object
Environment:Special Days,NEW YEARS DAY,Holiday,InputFile,01/01,  1
Environment:Special Days,MARTIN LUTHER KING DAY,Holiday,InputFile,01/21,  1
Environment:Special Days,WASHINGTON'S BIRTHDAY,Holiday,InputFile,02/18,  1
Environment:Special Days,MEMORIAL DAY,Holiday,InputFile,05/27,  1
Environment:Special Days,INDEPENDENCE DAY,Holiday,InputFile,07/04,  1
Environment:Special Days,LABOR DAY,Holiday,InputFile,09/02,  1
Environment:Special Days,VETERAN'S DAY,Holiday,InputFile,11/11,  1
Environment:Special Days,THANKSGIVING DAY,Holiday,InputFile,11/28,  1
Environment:Special Days,CHRISTMAS DAY,Holiday,InputFile,12/25,  1
Environment:Special Days,NEW YEAR'S EVE,Holiday,InputFile,12/31,  1
Environment:WarmupDays,  7
! <Warmup Convergence Information>,Zone Name,Environment Type/Name,Average Warmup Temperature Difference {deltaC},Std Dev Warmup Temperature Difference {deltaC},Max Temperature Pass/Fail Convergence,Min Temperature Pass/Fail Convergence,Average Warmup Load Difference {W},Std Dev Warmup Load Difference {W},Heating Load Pass/Fail Convergence,Cooling Load Pass/Fail Convergence
 Warmup Convergence Information,FLEXLAB-XR-ELECROOM-ZONEA,RunPeriod: DATARUN,5.9022219439E-003,2.7347568985E-003,Pass,Pass,0.0000000000,0.0000000000,Pass,Pass
 Warmup Convergence Information,FLEXLAB-XR-ELECROOM-ZONEB,RunPeriod: DATARUN,5.7681659787E-003,2.6724186411E-003,Pass,Pass,0.0000000000,0.0000000000,Pass,Pass
 Warmup Convergence Information,FLEXLAB-XR-MECHROOM-ZONEA,RunPeriod: DATARUN,2.2687690369E-003,1.6580176070E-003,Pass,Pass,0.0000000000,0.0000000000,Pass,Pass
 Warmup Convergence Information,FLEXLAB-XR-MECHROOM-ZONEB,RunPeriod: DATARUN,1.7531056371E-003,1.2096846213E-003,Pass,Pass,0.0000000000,0.0000000000,Pass,Pass
 Warmup Convergence Information,FLEXLAB-XR-ZONEA,RunPeriod: DATARUN,0.1349197255,0.2653178722,Pass,Pass,0.1370700973,0.2158779841,Pass,Pass
 Warmup Convergence Information,FLEXLAB-XR-ZONEB,RunPeriod: DATARUN,0.1181350219,0.2004874267,Pass,Pass,0.1339456855,0.2669281531,Pass,Pass
 Warmup Convergence Information,FLEXLAB-XR-PLNMA,RunPeriod: DATARUN,0.1135838833,0.1482548835,Pass,Pass,0.2098130677,0.4324352107,Pass,Pass
 Warmup Convergence Information,FLEXLAB-XR-PLNMB,RunPeriod: DATARUN,9.7506923716E-002,0.1084705749,Pass,Pass,0.2980332722,0.8337873643,Pass,Pass
! <Program Control Information:Threads/Parallel Sims>, Threading Supported,Maximum Number of Threads, Env Set Threads (OMP_NUM_THREADS), EP Env Set Threads (EP_OMP_NUM_THREADS), IDF Set Threads, Number of Threads Used (Interior Radiant Exchange), Number Nominal Surfaces, Number Parallel Sims
Program Control:Threads/Parallel Sims, No,1, N/A, N/A, N/A, N/A, N/A, 1
End of Data
