<<<<<<< HEAD:Output_EPExport_Slave/HVAC_Sha_lig_fmu_AB.bnd
Program Version,EnergyPlus, Version 8.5.0-c87e61b44b, YMD=2020.04.11 18:24
=======
Program Version,EnergyPlus, Version 8.4.0-09f5359d8a, YMD=2020.01.31 11:13
>>>>>>> f594090eec9e38d7a1ce252c1a762a24be9bc5f4:utilities/EPlusmodel/XR/economizer/test/FlexlabXR_csv_noEco.bnd
! This file shows details about the branches, nodes, and other
! elements of the flow connections.
! This file is intended for use in "debugging" potential problems
! that may also be detected by the program, but may be more easily
! identified by "eye".
! This file is also intended to support software which draws a
! schematic diagram of the HVAC system.
! ===============================================================
! #Nodes,<Number of Unique Nodes>
 #Nodes,44
! <Node>,<NodeNumber>,<Node Name>,<Node Fluid Type>,<# Times Node Referenced After Definition>
 Node,1,ZONE A SUPPLY INLET,Air,3
 Node,2,SYS-A FAN OUTLET,Air,6
 Node,3,SYS-A AIR LOOP INLET NODE,Air,4
 Node,4,SYS-A COOLING COIL AIR OUTLET NODE,Air,6
 Node,5,SYS-A HEATING COIL OUTLET,Air,7
 Node,6,ZONE B SUPPLY INLET,Air,3
 Node,7,SYS-B FAN OUTLET,Air,6
 Node,8,SYS-B AIR LOOP INLET NODE,Air,4
 Node,9,SYS-B COOLING COIL AIR OUTLET NODE,Air,6
 Node,10,SYS-B HEATING COIL OUTLET,Air,7
 Node,11,SYS-A PURCHASED COOL INLET NODE,Water,2
 Node,12,SYS-A PURCHASED COOL OUTLET NODE,Water,2
 Node,13,SYS-A CW SEC DEMAND INLET NODE,Water,2
 Node,14,SYS-A CW SEC DEMAND PUMP OUTLET NODE,Water,6
 Node,15,SYS-A COOLING COIL WATER OUTLET NODE,Water,2
 Node,16,SYS-B PURCHASED COOL INLET NODE,Water,2
 Node,17,SYS-B PURCHASED COOL OUTLET NODE,Water,2
 Node,18,SYS-B CW SEC DEMAND INLET NODE,Water,2
 Node,19,SYS-B CW SEC DEMAND PUMP OUTLET NODE,Water,6
 Node,20,SYS-B COOLING COIL WATER OUTLET NODE,Water,2
 Node,21,SYS-A PURCHASED HEAT INLET NODE,Water,2
 Node,22,SYS-A PURCHASED HEAT OUTLET NODE,Water,2
 Node,23,SYS-A HW SEC DEMAND INLET NODE,Water,2
 Node,24,SYS-A HW SEC DEMAND PUMP OUTLET NODE,Water,6
 Node,25,SYS-A HEATING COIL WATER OUTLET NODE,Water,2
 Node,26,SYS-B PURCHASED HEAT INLET NODE,Water,2
 Node,27,SYS-B PURCHASED HEAT OUTLET NODE,Water,2
 Node,28,SYS-B HW SEC DEMAND INLET NODE,Water,2
 Node,29,SYS-B HW SEC DEMAND PUMP OUTLET NODE,Water,6
 Node,30,SYS-B HEATING COIL WATER OUTLET NODE,Water,2
 Node,31,SYS-A OUTSIDE AIR INLET,Air,0
 Node,32,SYS-B OUTSIDE AIR INLET,Air,0
 Node,33,ZONE A ZONE AIR NODE,Air,0
 Node,34,ZONE A RETURN OUTLET,Air,1
 Node,35,ZONE B ZONE AIR NODE,Air,0
 Node,36,ZONE B RETURN OUTLET,Air,1
 Node,37,SYS-A ZONE EQUIP INLET,Air,2
 Node,38,SYS-B ZONE EQUIP INLET,Air,2
 Node,39,SYS-A RETURN AIR OUTLET,Air,2
 Node,40,SYS-B RETURN AIR OUTLET,Air,2
 Node,41,PLENUM-A NODE,Air,0
 Node,42,PLENUM-A OUT NODE,Air,1
 Node,43,PLENUM-B,Air,0
 Node,44,PLENUM-B OUT NODE,Air,1
! ===============================================================
! Suspicious nodes have 0 references.  It is normal for some nodes, however.
! Listing nodes with 0 references (culled from previous list):
! <Suspicious Node>,<NodeNumber>,<Node Name>,<Node Fluid Type>,<# Times Node Referenced After Definition>
 Suspicious Node,31,SYS-A OUTSIDE AIR INLET,Air,0
 Suspicious Node,32,SYS-B OUTSIDE AIR INLET,Air,0
 Suspicious Node,33,ZONE A ZONE AIR NODE,Air,0
 Suspicious Node,35,ZONE B ZONE AIR NODE,Air,0
 Suspicious Node,41,PLENUM-A NODE,Air,0
 Suspicious Node,43,PLENUM-B,Air,0
! ===============================================================
! <#Branch Lists>,<Number of Branch Lists>
 #Branch Lists,10
! <Branch List>,<Branch List Count>,<Branch List Name>,<Loop Name>,<Loop Type>,<Number of Branches>
! <Branch>,<Branch Count>,<Branch Name>,<Loop Name>,<Loop Type>,<Branch Inlet Node Name>,<Branch Outlet Node Name>
 Branch List,1,SYS-A BRANCHES,SYS-A,Air,1
   Branch,1,SYS-A MAIN BRANCH,SYS-A,Air,SYS-A AIR LOOP INLET NODE,SYS-A FAN OUTLET
 Branch List,2,SYS-B BRANCHES,SYS-B,Air,1
   Branch,1,SYS-B MAIN BRANCH,SYS-B,Air,SYS-B AIR LOOP INLET NODE,SYS-B FAN OUTLET
 Branch List,3,SYS-A CW SEC SUPPLY BRANCHES,SYS-A SECONDARY CHILLED WATER LOOP,Plant Supply,1
   Branch,1,SYS-A CW SEC SUPPLY PURCHASED CHILLED WATER BRANCH,SYS-A SECONDARY CHILLED WATER LOOP,Plant Supply,SYS-A PURCHASED COOL INLET NODE,SYS-A PURCHASED COOL OUTLET NODE
 Branch List,4,SYS-A CW SEC DEMAND BRANCHES,SYS-A SECONDARY CHILLED WATER LOOP,Plant Demand,1
   Branch,1,SYS-A CW SEC DEMAND INLET BRANCH,SYS-A SECONDARY CHILLED WATER LOOP,Plant Demand,SYS-A CW SEC DEMAND INLET NODE,SYS-A COOLING COIL WATER OUTLET NODE
 Branch List,5,SYS-B CW SEC SUPPLY BRANCHES,SYS-B SECONDARY CHILLED WATER LOOP,Plant Supply,1
   Branch,1,SYS-B CW SEC SUPPLY PURCHASED CHILLED WATER BRANCH,SYS-B SECONDARY CHILLED WATER LOOP,Plant Supply,SYS-B PURCHASED COOL INLET NODE,SYS-B PURCHASED COOL OUTLET NODE
 Branch List,6,SYS-B CW SEC DEMAND BRANCHES,SYS-B SECONDARY CHILLED WATER LOOP,Plant Demand,1
   Branch,1,SYS-B CW SEC DEMAND INLET BRANCH,SYS-B SECONDARY CHILLED WATER LOOP,Plant Demand,SYS-B CW SEC DEMAND INLET NODE,SYS-B COOLING COIL WATER OUTLET NODE
 Branch List,7,SYS-A HW SEC SUPPLY BRANCHES,SYS-A SECONDARY HOT WATER LOOP,Plant Supply,1
   Branch,1,SYS-A HW SEC SUPPLY PURCHASED HOT WATER BRANCH,SYS-A SECONDARY HOT WATER LOOP,Plant Supply,SYS-A PURCHASED HEAT INLET NODE,SYS-A PURCHASED HEAT OUTLET NODE
 Branch List,8,SYS-A HW SEC DEMAND BRANCHES,SYS-A SECONDARY HOT WATER LOOP,Plant Demand,1
   Branch,1,SYS-A HW SEC DEMAND INLET BRANCH,SYS-A SECONDARY HOT WATER LOOP,Plant Demand,SYS-A HW SEC DEMAND INLET NODE,SYS-A HEATING COIL WATER OUTLET NODE
 Branch List,9,SYS-B HW SEC SUPPLY BRANCHES,SYS-B SECONDARY HOT WATER LOOP,Plant Supply,1
   Branch,1,SYS-B HW SEC SUPPLY PURCHASED HOT WATER BRANCH,SYS-B SECONDARY HOT WATER LOOP,Plant Supply,SYS-B PURCHASED HEAT INLET NODE,SYS-B PURCHASED HEAT OUTLET NODE
 Branch List,10,SYS-B HW SEC DEMAND BRANCHES,SYS-B SECONDARY HOT WATER LOOP,Plant Demand,1
   Branch,1,SYS-B HW SEC DEMAND INLET BRANCH,SYS-B SECONDARY HOT WATER LOOP,Plant Demand,SYS-B HW SEC DEMAND INLET NODE,SYS-B HEATING COIL WATER OUTLET NODE
! ===============================================================
! <#Supply Air Paths>,<Number of Supply Air Paths>
 #Supply Air Paths,2
! <Supply Air Path>,<Supply Air Path Count>,<Supply Air Path Name>,<AirLoopHVAC Name>
! <#Components on Supply Air Path>,<Number of Components>
! <Supply Air Path Component>,<Component Count>,<Component Type>,<Component Name>,<AirLoopHVAC Name>
! <#Outlet Nodes on Supply Air Path Component>,<Number of Nodes>
! <Supply Air Path Component Nodes>,<Node Count>,<Component Type>,<Component Name>,<Inlet Node Name>,<Outlet Node Name>,<AirLoopHVAC Name>
 Supply Air Path,1,SYS-A SUPPLY PATH,SYS-A
   #Components on Supply Air Path,1
   Supply Air Path Component,1,AIRLOOPHVAC:ZONESPLITTER,SYS-A ZONE SPLITTER,SYS-A
     #Outlet Nodes on Supply Air Path Component,1
     Supply Air Path Component Nodes,1,AIRLOOPHVAC:ZONESPLITTER,SYS-A ZONE SPLITTER,SYS-A ZONE EQUIP INLET,ZONE A SUPPLY INLET,SYS-A
! <#Nodes on Supply Air Path>,<Number of Nodes>
! <Supply Air Path Node>,<Node Type>,<Node Count>,<Node Name>,<AirLoopHVAC Name>
#Nodes on Supply Air Path,2
   Supply Air Path Node,Inlet Node,1,SYS-A ZONE EQUIP INLET,SYS-A
   Supply Air Path Node,Outlet Node,2,ZONE A SUPPLY INLET,SYS-A
 Supply Air Path,2,SYS-B SUPPLY PATH,SYS-B
   #Components on Supply Air Path,1
   Supply Air Path Component,1,AIRLOOPHVAC:ZONESPLITTER,SYS-B ZONE SPLITTER,SYS-B
     #Outlet Nodes on Supply Air Path Component,1
     Supply Air Path Component Nodes,1,AIRLOOPHVAC:ZONESPLITTER,SYS-B ZONE SPLITTER,SYS-B ZONE EQUIP INLET,ZONE B SUPPLY INLET,SYS-B
! <#Nodes on Supply Air Path>,<Number of Nodes>
! <Supply Air Path Node>,<Node Type>,<Node Count>,<Node Name>,<AirLoopHVAC Name>
#Nodes on Supply Air Path,2
   Supply Air Path Node,Inlet Node,1,SYS-B ZONE EQUIP INLET,SYS-B
   Supply Air Path Node,Outlet Node,2,ZONE B SUPPLY INLET,SYS-B
! ===============================================================
! <#Return Air Paths>,<Number of Return Air Paths>
 #Return Air Paths,2
! <Return Air Path>,<Return Air Path Count>,<Return Air Path Name>,<AirLoopHVAC Name>
! <#Components on Return Air Path>,<Number of Components>
! <Return Air Path Component>,<Component Count>,<Component Type>,<Component Name>,<AirLoopHVAC Name>
! <#Inlet Nodes on Return Air Path Component>,<Number of Nodes>
! <Return Air Path Component Nodes>,<Node Count>,<Component Type>,<Component Name>,<Inlet Node Name>,<Outlet Node Name>,<AirLoopHVAC Name>
 Return Air Path,1,SYS-A RETURN PATH,SYS-A
   #Components on Return Air Path,2
   Return Air Path Component,1,AIRLOOPHVAC:RETURNPLENUM,RETURNPLENUM-A,SYS-A
   Return Air Path Component,2,AIRLOOPHVAC:ZONEMIXER,SYS-A ZONE MIXER,SYS-A
     #Inlet Nodes on Return Air Path Component,1
     Return Air Path Component Nodes,1,AIRLOOPHVAC:ZONEMIXER,SYS-A ZONE MIXER,PLENUM-A OUT NODE,SYS-A RETURN AIR OUTLET,SYS-A
! <#Nodes on Return Air Path>,<Number of Nodes>
! <Return Air Path Node>,<Node Type>,<Node Count>,<Node Name>,<AirLoopHVAC Name>
   #Nodes on Return Air Path,3
   Return Air Path Node,Outlet Node,1,SYS-A RETURN AIR OUTLET,SYS-A
   Return Air Path Node,Inlet Node,2,PLENUM-A OUT NODE,SYS-A
   Return Air Path Node,Inlet Node,3,ZONE A RETURN OUTLET,SYS-A
 Return Air Path,2,SYS-B RETURN PATH,SYS-B
   #Components on Return Air Path,2
   Return Air Path Component,1,AIRLOOPHVAC:RETURNPLENUM,RETURNPLENUM-B,SYS-B
   Return Air Path Component,2,AIRLOOPHVAC:ZONEMIXER,SYS-B ZONE MIXER,SYS-B
     #Inlet Nodes on Return Air Path Component,1
     Return Air Path Component Nodes,1,AIRLOOPHVAC:ZONEMIXER,SYS-B ZONE MIXER,PLENUM-B OUT NODE,SYS-B RETURN AIR OUTLET,SYS-B
! <#Nodes on Return Air Path>,<Number of Nodes>
! <Return Air Path Node>,<Node Type>,<Node Count>,<Node Name>,<AirLoopHVAC Name>
   #Nodes on Return Air Path,3
   Return Air Path Node,Outlet Node,1,SYS-B RETURN AIR OUTLET,SYS-B
   Return Air Path Node,Inlet Node,2,PLENUM-B OUT NODE,SYS-B
   Return Air Path Node,Inlet Node,3,ZONE B RETURN OUTLET,SYS-B
! ===============================================================
! #Outdoor Air Nodes,<Number of Outdoor Air Nodes>
 #Outdoor Air Nodes,2
! <Outdoor Air Node>,<NodeNumber>,<Node Name>
 Outdoor Air Node,31,SYS-A OUTSIDE AIR INLET
 Outdoor Air Node,32,SYS-B OUTSIDE AIR INLET
! ===============================================================
! <#Component Sets>,<Number of Component Sets>
 #Component Sets,18
! <Component Set>,<Component Set Count>,<Parent Object Type>,<Parent Object Name>,<Component Type>,<Component Name>,<Inlet Node ID>,<Outlet Node ID>,<Description>
 Component Set,1,BRANCH,SYS-A MAIN BRANCH,COIL:COOLING:WATER,SYS-A COOLING COIL,SYS-A AIR LOOP INLET NODE,SYS-A COOLING COIL AIR OUTLET NODE,Air Nodes
 Component Set,2,BRANCH,SYS-A MAIN BRANCH,COIL:HEATING:WATER,SYS-A HEATING COIL,SYS-A COOLING COIL AIR OUTLET NODE,SYS-A HEATING COIL OUTLET,Air Nodes
 Component Set,3,BRANCH,SYS-A MAIN BRANCH,FAN:VARIABLEVOLUME,SYS-A SUPPLY FAN,SYS-A HEATING COIL OUTLET,SYS-A FAN OUTLET,Air Nodes
 Component Set,4,BRANCH,SYS-B MAIN BRANCH,COIL:COOLING:WATER,SYS-B COOLING COIL,SYS-B AIR LOOP INLET NODE,SYS-B COOLING COIL AIR OUTLET NODE,Air Nodes
 Component Set,5,BRANCH,SYS-B MAIN BRANCH,COIL:HEATING:WATER,SYS-B HEATING COIL,SYS-B COOLING COIL AIR OUTLET NODE,SYS-B HEATING COIL OUTLET,Air Nodes
 Component Set,6,BRANCH,SYS-B MAIN BRANCH,FAN:VARIABLEVOLUME,SYS-B SUPPLY FAN,SYS-B HEATING COIL OUTLET,SYS-B FAN OUTLET,Air Nodes
 Component Set,7,BRANCH,SYS-A CW SEC SUPPLY PURCHASED CHILLED WATER BRANCH,DISTRICTCOOLING,SYS-A PURCHASED COOLING,SYS-A PURCHASED COOL INLET NODE,SYS-A PURCHASED COOL OUTLET NODE,Chilled Water Nodes
 Component Set,8,BRANCH,SYS-A CW SEC DEMAND INLET BRANCH,PUMP:VARIABLESPEED,SYS-A CW SEC CIRC PUMP2,SYS-A CW SEC DEMAND INLET NODE,SYS-A CW SEC DEMAND PUMP OUTLET NODE,Water Nodes
 Component Set,9,BRANCH,SYS-A CW SEC DEMAND INLET BRANCH,COIL:COOLING:WATER,SYS-A COOLING COIL,SYS-A CW SEC DEMAND PUMP OUTLET NODE,SYS-A COOLING COIL WATER OUTLET NODE,Water Nodes
 Component Set,10,BRANCH,SYS-B CW SEC SUPPLY PURCHASED CHILLED WATER BRANCH,DISTRICTCOOLING,SYS-B PURCHASED COOLING,SYS-B PURCHASED COOL INLET NODE,SYS-B PURCHASED COOL OUTLET NODE,Chilled Water Nodes
 Component Set,11,BRANCH,SYS-B CW SEC DEMAND INLET BRANCH,PUMP:VARIABLESPEED,SYS-B CW SEC CIRC PUMP2,SYS-B CW SEC DEMAND INLET NODE,SYS-B CW SEC DEMAND PUMP OUTLET NODE,Water Nodes
 Component Set,12,BRANCH,SYS-B CW SEC DEMAND INLET BRANCH,COIL:COOLING:WATER,SYS-B COOLING COIL,SYS-B CW SEC DEMAND PUMP OUTLET NODE,SYS-B COOLING COIL WATER OUTLET NODE,Water Nodes
 Component Set,13,BRANCH,SYS-A HW SEC SUPPLY PURCHASED HOT WATER BRANCH,DISTRICTHEATING,SYS-A PURCHASED HEATING,SYS-A PURCHASED HEAT INLET NODE,SYS-A PURCHASED HEAT OUTLET NODE,Hot Water Nodes
 Component Set,14,BRANCH,SYS-A HW SEC DEMAND INLET BRANCH,PUMP:VARIABLESPEED,SYS-A HW SEC CIRC PUMP2,SYS-A HW SEC DEMAND INLET NODE,SYS-A HW SEC DEMAND PUMP OUTLET NODE,Water Nodes
 Component Set,15,BRANCH,SYS-A HW SEC DEMAND INLET BRANCH,COIL:HEATING:WATER,SYS-A HEATING COIL,SYS-A HW SEC DEMAND PUMP OUTLET NODE,SYS-A HEATING COIL WATER OUTLET NODE,Water Nodes
 Component Set,16,BRANCH,SYS-B HW SEC SUPPLY PURCHASED HOT WATER BRANCH,DISTRICTHEATING,SYS-B PURCHASED HEATING,SYS-B PURCHASED HEAT INLET NODE,SYS-B PURCHASED HEAT OUTLET NODE,Hot Water Nodes
 Component Set,17,BRANCH,SYS-B HW SEC DEMAND INLET BRANCH,PUMP:VARIABLESPEED,SYS-B HW SEC CIRC PUMP2,SYS-B HW SEC DEMAND INLET NODE,SYS-B HW SEC DEMAND PUMP OUTLET NODE,Water Nodes
 Component Set,18,BRANCH,SYS-B HW SEC DEMAND INLET BRANCH,COIL:HEATING:WATER,SYS-B HEATING COIL,SYS-B HW SEC DEMAND PUMP OUTLET NODE,SYS-B HEATING COIL WATER OUTLET NODE,Water Nodes
! ===============================================================
! <# Plant Loops>,<Number of Plant Loops>
 #Plant Loops,4
! <Plant Loop>,<Plant Loop Name>,<Loop Type>,<Inlet Node Name>,<Outlet Node Name>,<Branch List>,<Connector List>
! <Plant Loop Connector>,<Connector Type>,<Connector Name>,<Loop Name>,<Loop Type>,<Number of Inlets/Outlets>
! <Plant Loop Connector Branches>,<Connector Node Count>,<Connector Type>,<Connector Name>,<Inlet Branch>,<Outlet Branch>,<Loop Name>,<Loop Type>
! <Plant Loop Connector Nodes>,<Connector Node Count>,<Connector Type>,<Connector Name>,<Inlet Node>,<Outlet Node>,<Loop Name>,<Loop Type>
! <Plant Loop Supply Connection>,<Plant Loop Name>,<Supply Side Outlet Node Name>,<Demand Side Inlet Node Name>
! <Plant Loop Return Connection>,<Plant Loop Name>,<Demand Side Outlet Node Name>,<Supply Side Inlet Node Name>
 Plant Loop,SYS-A SECONDARY CHILLED WATER LOOP,Demand,SYS-A CW SEC DEMAND INLET NODE,SYS-A COOLING COIL WATER OUTLET NODE,SYS-A CW SEC DEMAND BRANCHES,
 Plant Loop,SYS-A SECONDARY CHILLED WATER LOOP,Supply,SYS-A PURCHASED COOL INLET NODE,SYS-A PURCHASED COOL OUTLET NODE,SYS-A CW SEC SUPPLY BRANCHES,
 Plant Loop Supply Connection,SYS-A SECONDARY CHILLED WATER LOOP,SYS-A PURCHASED COOL OUTLET NODE,SYS-A CW SEC DEMAND INLET NODE
 Plant Loop Return Connection,SYS-A SECONDARY CHILLED WATER LOOP,SYS-A COOLING COIL WATER OUTLET NODE,SYS-A PURCHASED COOL INLET NODE
 Plant Loop,SYS-B SECONDARY CHILLED WATER LOOP,Demand,SYS-B CW SEC DEMAND INLET NODE,SYS-B COOLING COIL WATER OUTLET NODE,SYS-B CW SEC DEMAND BRANCHES,
 Plant Loop,SYS-B SECONDARY CHILLED WATER LOOP,Supply,SYS-B PURCHASED COOL INLET NODE,SYS-B PURCHASED COOL OUTLET NODE,SYS-B CW SEC SUPPLY BRANCHES,
 Plant Loop Supply Connection,SYS-B SECONDARY CHILLED WATER LOOP,SYS-B PURCHASED COOL OUTLET NODE,SYS-B CW SEC DEMAND INLET NODE
 Plant Loop Return Connection,SYS-B SECONDARY CHILLED WATER LOOP,SYS-B COOLING COIL WATER OUTLET NODE,SYS-B PURCHASED COOL INLET NODE
 Plant Loop,SYS-A SECONDARY HOT WATER LOOP,Demand,SYS-A HW SEC DEMAND INLET NODE,SYS-A HEATING COIL WATER OUTLET NODE,SYS-A HW SEC DEMAND BRANCHES,
 Plant Loop,SYS-A SECONDARY HOT WATER LOOP,Supply,SYS-A PURCHASED HEAT INLET NODE,SYS-A PURCHASED HEAT OUTLET NODE,SYS-A HW SEC SUPPLY BRANCHES,
 Plant Loop Supply Connection,SYS-A SECONDARY HOT WATER LOOP,SYS-A PURCHASED HEAT OUTLET NODE,SYS-A HW SEC DEMAND INLET NODE
 Plant Loop Return Connection,SYS-A SECONDARY HOT WATER LOOP,SYS-A HEATING COIL WATER OUTLET NODE,SYS-A PURCHASED HEAT INLET NODE
 Plant Loop,SYS-B SECONDARY HOT WATER LOOP,Demand,SYS-B HW SEC DEMAND INLET NODE,SYS-B HEATING COIL WATER OUTLET NODE,SYS-B HW SEC DEMAND BRANCHES,
 Plant Loop,SYS-B SECONDARY HOT WATER LOOP,Supply,SYS-B PURCHASED HEAT INLET NODE,SYS-B PURCHASED HEAT OUTLET NODE,SYS-B HW SEC SUPPLY BRANCHES,
 Plant Loop Supply Connection,SYS-B SECONDARY HOT WATER LOOP,SYS-B PURCHASED HEAT OUTLET NODE,SYS-B HW SEC DEMAND INLET NODE
 Plant Loop Return Connection,SYS-B SECONDARY HOT WATER LOOP,SYS-B HEATING COIL WATER OUTLET NODE,SYS-B PURCHASED HEAT INLET NODE
! ===============================================================
! <# Condenser Loops>,<Number of Condenser Loops>
 #Condenser Loops,0
! <Condenser Loop>,<Condenser Loop Name>,<Loop Type>,<Inlet Node Name>,<Outlet Node Name>,<Branch List>,<Connector List>
! <Condenser Loop Connector>,<Connector Type>,<Connector Name>,<Loop Name>,<Loop Type>,<Number of Inlets/Outlets>
! <Condenser Loop Connector Branches>,<Connector Node Count>,<Connector Type>,<Connector Name>,<Inlet Branch>,<Outlet Branch>,<Loop Name>,<Loop Type>
! <Condenser Loop Connector Nodes>,<Connector Node Count>,<Connector Type>,<Connector Name>,<Inlet Node>,<Outlet Node>,<Loop Name>,<Loop Type>
! <Condenser Loop Supply Connection>,<Condenser Loop Name>,<Supply Side Outlet Node Name>,<Demand Side Inlet Node Name>
! <Condenser Loop Return Connection>,<Condenser Loop Name>,<Demand Side Outlet Node Name>,<Supply Side Inlet Node Name>
! ===============================================================
! <# Controlled Zones>,<Number of Controlled Zones>
 #Controlled Zones,2
! <Controlled Zone>,<Controlled Zone Name>,<Equip List Name>,<Control List Name>,<Zone Node Name>,<Return Air Node Name>,<# Inlet Nodes>,<# Exhaust Nodes>
! <Controlled Zone Inlet>,<Inlet Node Count>,<Controlled Zone Name>,<Supply Air Inlet Node Name>,<SD Sys:Cooling/Heating [DD:Cooling] Inlet Node Name>,<DD Sys:Heating Inlet Node Name>
! <Controlled Zone Exhaust>,<Exhaust Node Count>,<Controlled Zone Name>,<Exhaust Air Node Name>
 Controlled Zone,FLEXLAB-XR-ZONEA,ZONE A EQUIPMENT,,ZONE A ZONE AIR NODE,ZONE A RETURN OUTLET,1,0
   Controlled Zone Inlet,1,FLEXLAB-XR-ZONEA,ZONE A SUPPLY INLET,ZONE A SUPPLY INLET,N/A
 Controlled Zone,FLEXLAB-XR-ZONEB,ZONE B EQUIPMENT,,ZONE B ZONE AIR NODE,ZONE B RETURN OUTLET,1,0
   Controlled Zone Inlet,1,FLEXLAB-XR-ZONEB,ZONE B SUPPLY INLET,ZONE B SUPPLY INLET,N/A
! ===============================================================
! <#Zone Equipment Lists>,<Number of Zone Equipment Lists>
 #Zone Equipment Lists,2
! <Zone Equipment List>,<Zone Equipment List Count>,<Zone Equipment List Name>,<Zone Name>,<Number of Components>
! <Zone Equipment Component>,<Component Count>,<Component Type>,<Component Name>,<Zone Name>,<Heating Priority>,<Cooling Priority>
 Zone Equipment List,5,ZONE A EQUIPMENT,FLEXLAB-XR-ZONEA,1
   Zone Equipment Component,1,AIRTERMINAL:SINGLEDUCT:UNCONTROLLED,ZONE A DIRECT AIR,FLEXLAB-XR-ZONEA,1,1
 Zone Equipment List,6,ZONE B EQUIPMENT,FLEXLAB-XR-ZONEB,1
   Zone Equipment Component,1,AIRTERMINAL:SINGLEDUCT:UNCONTROLLED,ZONE B DIRECT AIR,FLEXLAB-XR-ZONEB,1,1
! ===============================================================
! <#AirLoopHVACs>,<Number of AirLoopHVACs>
 #AirLoopHVACs,2
! <AirLoopHVAC>,<Air Loop Name>,<# Return Nodes>,<# Supply Nodes>,<# Zones Cooled>,<# Zones Heated>,<Outdoor Air Used>
! <AirLoop Return Connections>,<Connection Count>,<AirLoopHVAC Name>,<Zn Eqp Return Node #>,<Zn Eqp Return Node Name>,<AirLoop Return Node #>,<Air Loop Return Node Name>
! <AirLoop Supply Connections>,<Connection Count>,<AirLoopHVAC Name>,<Zn Eqp Supply Node #>,<Zn Eqp Supply Node Name>,<AirLoop Supply Node #>,<Air Loop Supply Node Name>
! <Cooled Zone Info>,<Cooled Zone Count>,<Cooled Zone Name>,<Cooled Zone Inlet Node #>,<Cooled Zone Inlet Node Name>,<AirLoopHVAC Name>
! <Heated Zone Info>,<Heated Zone Count>,<Heated Zone Name>,<Heated Zone Inlet Node #>,<Heated Zone Inlet Node Name>,<AirLoopHVAC Name>
! <Outdoor Air Connections>,<OA Inlet Node #>,<OA Return Air Inlet Node Name>,<OA Outlet Node #>,<OA Mixed Air Outlet Node Name>,<AirLoopHVAC Name>
! <AirLoopHVAC Connector>,<Connector Type>,<Connector Name>,<Loop Name>,<Loop Type>,<Number of Inlets/Outlets>
! <AirLoopHVAC Connector Branches>,<Connector Node Count>,<Connector Type>,<Connector Name>,<Inlet Branch>,<Outlet Branch>,<Loop Name>,<Loop Type>
! <AirLoopHVAC Connector Nodes>,<Connector Node Count>,<Connector Type>,<Connector Name>,<Inlet Node>,<Outlet Node>,<Loop Name>,<Loop Type>
 AirLoopHVAC,SYS-A,1,1,1,0,No
   AirLoop Return Connections,1,SYS-A,39,SYS-A RETURN AIR OUTLET,3,SYS-A AIR LOOP INLET NODE
   AirLoop Supply Connections,1,SYS-A,37,SYS-A ZONE EQUIP INLET,2,SYS-A FAN OUTLET
   Cooled Zone Info,1,FLEXLAB-XR-ZONEA,1,ZONE A SUPPLY INLET,SYS-A
 AirLoopHVAC,SYS-B,1,1,1,0,No
   AirLoop Return Connections,1,SYS-B,40,SYS-B RETURN AIR OUTLET,8,SYS-B AIR LOOP INLET NODE
   AirLoop Supply Connections,1,SYS-B,38,SYS-B ZONE EQUIP INLET,7,SYS-B FAN OUTLET
   Cooled Zone Info,1,FLEXLAB-XR-ZONEB,6,ZONE B SUPPLY INLET,SYS-B
! ===============================================================
! <#Parent Node Connections>,<Number of Parent Node Connections>
 #Parent Node Connections,60
! <Parent Node Connection>,<Node Name>,<Node ObjectType>,<Node ObjectName>,<Node ConnectionType>,<Node FluidStream>
 Parent Node Connection,SYS-A AIR LOOP INLET NODE,BRANCH,SYS-A MAIN BRANCH,Inlet,1
 Parent Node Connection,SYS-A COOLING COIL AIR OUTLET NODE,BRANCH,SYS-A MAIN BRANCH,Internal,1
 Parent Node Connection,SYS-A HEATING COIL OUTLET,BRANCH,SYS-A MAIN BRANCH,Internal,1
 Parent Node Connection,SYS-A FAN OUTLET,BRANCH,SYS-A MAIN BRANCH,Outlet,1
 Parent Node Connection,SYS-B AIR LOOP INLET NODE,BRANCH,SYS-B MAIN BRANCH,Inlet,1
 Parent Node Connection,SYS-B COOLING COIL AIR OUTLET NODE,BRANCH,SYS-B MAIN BRANCH,Internal,1
 Parent Node Connection,SYS-B HEATING COIL OUTLET,BRANCH,SYS-B MAIN BRANCH,Internal,1
 Parent Node Connection,SYS-B FAN OUTLET,BRANCH,SYS-B MAIN BRANCH,Outlet,1
 Parent Node Connection,SYS-A PURCHASED COOL INLET NODE,BRANCH,SYS-A CW SEC SUPPLY PURCHASED CHILLED WATER BRANCH,Inlet,1
 Parent Node Connection,SYS-A PURCHASED COOL OUTLET NODE,BRANCH,SYS-A CW SEC SUPPLY PURCHASED CHILLED WATER BRANCH,Outlet,1
 Parent Node Connection,SYS-A CW SEC DEMAND INLET NODE,BRANCH,SYS-A CW SEC DEMAND INLET BRANCH,Inlet,1
 Parent Node Connection,SYS-A CW SEC DEMAND PUMP OUTLET NODE,BRANCH,SYS-A CW SEC DEMAND INLET BRANCH,Internal,1
 Parent Node Connection,SYS-A COOLING COIL WATER OUTLET NODE,BRANCH,SYS-A CW SEC DEMAND INLET BRANCH,Outlet,1
 Parent Node Connection,SYS-B PURCHASED COOL INLET NODE,BRANCH,SYS-B CW SEC SUPPLY PURCHASED CHILLED WATER BRANCH,Inlet,1
 Parent Node Connection,SYS-B PURCHASED COOL OUTLET NODE,BRANCH,SYS-B CW SEC SUPPLY PURCHASED CHILLED WATER BRANCH,Outlet,1
 Parent Node Connection,SYS-B CW SEC DEMAND INLET NODE,BRANCH,SYS-B CW SEC DEMAND INLET BRANCH,Inlet,1
 Parent Node Connection,SYS-B CW SEC DEMAND PUMP OUTLET NODE,BRANCH,SYS-B CW SEC DEMAND INLET BRANCH,Internal,1
 Parent Node Connection,SYS-B COOLING COIL WATER OUTLET NODE,BRANCH,SYS-B CW SEC DEMAND INLET BRANCH,Outlet,1
 Parent Node Connection,SYS-A PURCHASED HEAT INLET NODE,BRANCH,SYS-A HW SEC SUPPLY PURCHASED HOT WATER BRANCH,Inlet,1
 Parent Node Connection,SYS-A PURCHASED HEAT OUTLET NODE,BRANCH,SYS-A HW SEC SUPPLY PURCHASED HOT WATER BRANCH,Outlet,1
 Parent Node Connection,SYS-A HW SEC DEMAND INLET NODE,BRANCH,SYS-A HW SEC DEMAND INLET BRANCH,Inlet,1
 Parent Node Connection,SYS-A HW SEC DEMAND PUMP OUTLET NODE,BRANCH,SYS-A HW SEC DEMAND INLET BRANCH,Internal,1
 Parent Node Connection,SYS-A HEATING COIL WATER OUTLET NODE,BRANCH,SYS-A HW SEC DEMAND INLET BRANCH,Outlet,1
 Parent Node Connection,SYS-B PURCHASED HEAT INLET NODE,BRANCH,SYS-B HW SEC SUPPLY PURCHASED HOT WATER BRANCH,Inlet,1
 Parent Node Connection,SYS-B PURCHASED HEAT OUTLET NODE,BRANCH,SYS-B HW SEC SUPPLY PURCHASED HOT WATER BRANCH,Outlet,1
 Parent Node Connection,SYS-B HW SEC DEMAND INLET NODE,BRANCH,SYS-B HW SEC DEMAND INLET BRANCH,Inlet,1
 Parent Node Connection,SYS-B HW SEC DEMAND PUMP OUTLET NODE,BRANCH,SYS-B HW SEC DEMAND INLET BRANCH,Internal,1
 Parent Node Connection,SYS-B HEATING COIL WATER OUTLET NODE,BRANCH,SYS-B HW SEC DEMAND INLET BRANCH,Outlet,1
 Parent Node Connection,SYS-A PURCHASED COOL INLET NODE,PLANTLOOP,SYS-A SECONDARY CHILLED WATER LOOP,Inlet,1
 Parent Node Connection,SYS-A PURCHASED COOL OUTLET NODE,PLANTLOOP,SYS-A SECONDARY CHILLED WATER LOOP,Outlet,1
 Parent Node Connection,SYS-A CW SEC DEMAND INLET NODE,PLANTLOOP,SYS-A SECONDARY CHILLED WATER LOOP,Inlet,1
 Parent Node Connection,SYS-A COOLING COIL WATER OUTLET NODE,PLANTLOOP,SYS-A SECONDARY CHILLED WATER LOOP,Outlet,1
 Parent Node Connection,SYS-A CW SEC DEMAND PUMP OUTLET NODE,PLANTLOOP,SYS-A SECONDARY CHILLED WATER LOOP,Sensor,1
 Parent Node Connection,SYS-B PURCHASED COOL INLET NODE,PLANTLOOP,SYS-B SECONDARY CHILLED WATER LOOP,Inlet,1
 Parent Node Connection,SYS-B PURCHASED COOL OUTLET NODE,PLANTLOOP,SYS-B SECONDARY CHILLED WATER LOOP,Outlet,1
 Parent Node Connection,SYS-B CW SEC DEMAND INLET NODE,PLANTLOOP,SYS-B SECONDARY CHILLED WATER LOOP,Inlet,1
 Parent Node Connection,SYS-B COOLING COIL WATER OUTLET NODE,PLANTLOOP,SYS-B SECONDARY CHILLED WATER LOOP,Outlet,1
 Parent Node Connection,SYS-B CW SEC DEMAND PUMP OUTLET NODE,PLANTLOOP,SYS-B SECONDARY CHILLED WATER LOOP,Sensor,1
 Parent Node Connection,SYS-A PURCHASED HEAT INLET NODE,PLANTLOOP,SYS-A SECONDARY HOT WATER LOOP,Inlet,1
 Parent Node Connection,SYS-A PURCHASED HEAT OUTLET NODE,PLANTLOOP,SYS-A SECONDARY HOT WATER LOOP,Outlet,1
 Parent Node Connection,SYS-A HW SEC DEMAND INLET NODE,PLANTLOOP,SYS-A SECONDARY HOT WATER LOOP,Inlet,1
 Parent Node Connection,SYS-A HEATING COIL WATER OUTLET NODE,PLANTLOOP,SYS-A SECONDARY HOT WATER LOOP,Outlet,1
 Parent Node Connection,SYS-A HW SEC DEMAND PUMP OUTLET NODE,PLANTLOOP,SYS-A SECONDARY HOT WATER LOOP,Sensor,1
 Parent Node Connection,SYS-B PURCHASED HEAT INLET NODE,PLANTLOOP,SYS-B SECONDARY HOT WATER LOOP,Inlet,1
 Parent Node Connection,SYS-B PURCHASED HEAT OUTLET NODE,PLANTLOOP,SYS-B SECONDARY HOT WATER LOOP,Outlet,1
 Parent Node Connection,SYS-B HW SEC DEMAND INLET NODE,PLANTLOOP,SYS-B SECONDARY HOT WATER LOOP,Inlet,1
 Parent Node Connection,SYS-B HEATING COIL WATER OUTLET NODE,PLANTLOOP,SYS-B SECONDARY HOT WATER LOOP,Outlet,1
 Parent Node Connection,SYS-B HW SEC DEMAND PUMP OUTLET NODE,PLANTLOOP,SYS-B SECONDARY HOT WATER LOOP,Sensor,1
 Parent Node Connection,SYS-A ZONE EQUIP INLET,AIRLOOPHVAC:SUPPLYPATH,SYS-A SUPPLY PATH,Inlet,1
 Parent Node Connection,SYS-B ZONE EQUIP INLET,AIRLOOPHVAC:SUPPLYPATH,SYS-B SUPPLY PATH,Inlet,1
 Parent Node Connection,SYS-A RETURN AIR OUTLET,AIRLOOPHVAC:RETURNPATH,SYS-A RETURN PATH,Outlet,1
 Parent Node Connection,SYS-B RETURN AIR OUTLET,AIRLOOPHVAC:RETURNPATH,SYS-B RETURN PATH,Outlet,1
 Parent Node Connection,SYS-A AIR LOOP INLET NODE,AIRLOOPHVAC,SYS-A,Inlet,1
 Parent Node Connection,SYS-A RETURN AIR OUTLET,AIRLOOPHVAC,SYS-A,Outlet,1
 Parent Node Connection,SYS-A ZONE EQUIP INLET,AIRLOOPHVAC,SYS-A,Inlet,1
 Parent Node Connection,SYS-A FAN OUTLET,AIRLOOPHVAC,SYS-A,Outlet,1
 Parent Node Connection,SYS-B AIR LOOP INLET NODE,AIRLOOPHVAC,SYS-B,Inlet,1
 Parent Node Connection,SYS-B RETURN AIR OUTLET,AIRLOOPHVAC,SYS-B,Outlet,1
 Parent Node Connection,SYS-B ZONE EQUIP INLET,AIRLOOPHVAC,SYS-B,Inlet,1
 Parent Node Connection,SYS-B FAN OUTLET,AIRLOOPHVAC,SYS-B,Outlet,1
! ===============================================================
! <#Non-Parent Node Connections>,<Number of Non-Parent Node Connections>
 #Non-Parent Node Connections,84
! <Non-Parent Node Connection>,<Node Name>,<Node ObjectType>,<Node ObjectName>,<Node ConnectionType>,<Node FluidStream>
 Non-Parent Node Connection,SYS-A OUTSIDE AIR INLET,OUTDOORAIR:NODELIST,OutdoorAir:NodeList,OutdoorAir,1
 Non-Parent Node Connection,SYS-B OUTSIDE AIR INLET,OUTDOORAIR:NODELIST,OutdoorAir:NodeList,OutdoorAir,2
 Non-Parent Node Connection,SYS-A CW SEC DEMAND PUMP OUTLET NODE,SETPOINTMANAGER:SCHEDULED,SYS-A CW SEC LOOP SETPOINT MANAGER,Setpoint,1
 Non-Parent Node Connection,SYS-B CW SEC DEMAND PUMP OUTLET NODE,SETPOINTMANAGER:SCHEDULED,SYS-B CW SEC LOOP SETPOINT MANAGER,Setpoint,1
 Non-Parent Node Connection,SYS-A HW SEC DEMAND PUMP OUTLET NODE,SETPOINTMANAGER:SCHEDULED,SYS-A HW SEC LOOP SETPOINT MANAGER,Setpoint,1
 Non-Parent Node Connection,SYS-B HW SEC DEMAND PUMP OUTLET NODE,SETPOINTMANAGER:SCHEDULED,SYS-B HW SEC LOOP SETPOINT MANAGER,Setpoint,1
 Non-Parent Node Connection,SYS-A FAN OUTLET,SETPOINTMANAGER:SCHEDULED,SYS-A SUPPLY AIR SETPOINT MANAGER,Setpoint,1
 Non-Parent Node Connection,SYS-B FAN OUTLET,SETPOINTMANAGER:SCHEDULED,SYS-B SUPPLY AIR SETPOINT MANAGER,Setpoint,1
 Non-Parent Node Connection,SYS-A FAN OUTLET,SETPOINTMANAGER:MIXEDAIR,SYS-A SETPOINT MANAGER 2,Sensor,1
 Non-Parent Node Connection,SYS-A HEATING COIL OUTLET,SETPOINTMANAGER:MIXEDAIR,SYS-A SETPOINT MANAGER 2,Sensor,1
 Non-Parent Node Connection,SYS-A AIR LOOP INLET NODE,SETPOINTMANAGER:MIXEDAIR,SYS-A SETPOINT MANAGER 2,Setpoint,1
 Non-Parent Node Connection,SYS-A COOLING COIL AIR OUTLET NODE,SETPOINTMANAGER:MIXEDAIR,SYS-A SETPOINT MANAGER 2,Setpoint,1
 Non-Parent Node Connection,SYS-A HEATING COIL OUTLET,SETPOINTMANAGER:MIXEDAIR,SYS-A SETPOINT MANAGER 2,Setpoint,1
 Non-Parent Node Connection,SYS-B FAN OUTLET,SETPOINTMANAGER:MIXEDAIR,SYS-B SETPOINT MANAGER 2,Sensor,1
 Non-Parent Node Connection,SYS-B HEATING COIL OUTLET,SETPOINTMANAGER:MIXEDAIR,SYS-B SETPOINT MANAGER 2,Sensor,1
 Non-Parent Node Connection,SYS-B AIR LOOP INLET NODE,SETPOINTMANAGER:MIXEDAIR,SYS-B SETPOINT MANAGER 2,Setpoint,1
 Non-Parent Node Connection,SYS-B COOLING COIL AIR OUTLET NODE,SETPOINTMANAGER:MIXEDAIR,SYS-B SETPOINT MANAGER 2,Setpoint,1
 Non-Parent Node Connection,SYS-B HEATING COIL OUTLET,SETPOINTMANAGER:MIXEDAIR,SYS-B SETPOINT MANAGER 2,Setpoint,1
 Non-Parent Node Connection,ZONE A ZONE AIR NODE,ZONEHVAC:EQUIPMENTCONNECTIONS,FLEXLAB-XR-ZONEA,ZoneNode,1
 Non-Parent Node Connection,ZONE A RETURN OUTLET,ZONEHVAC:EQUIPMENTCONNECTIONS,FLEXLAB-XR-ZONEA,ZoneReturn,1
 Non-Parent Node Connection,ZONE A SUPPLY INLET,ZONEHVAC:EQUIPMENTCONNECTIONS,FLEXLAB-XR-ZONEA,ZoneInlet,1
 Non-Parent Node Connection,ZONE B ZONE AIR NODE,ZONEHVAC:EQUIPMENTCONNECTIONS,FLEXLAB-XR-ZONEB,ZoneNode,1
 Non-Parent Node Connection,ZONE B RETURN OUTLET,ZONEHVAC:EQUIPMENTCONNECTIONS,FLEXLAB-XR-ZONEB,ZoneReturn,1
 Non-Parent Node Connection,ZONE B SUPPLY INLET,ZONEHVAC:EQUIPMENTCONNECTIONS,FLEXLAB-XR-ZONEB,ZoneInlet,1
 Non-Parent Node Connection,SYS-A ZONE EQUIP INLET,AIRLOOPHVAC:ZONESPLITTER,SYS-A ZONE SPLITTER,Inlet,1
 Non-Parent Node Connection,ZONE A SUPPLY INLET,AIRLOOPHVAC:ZONESPLITTER,SYS-A ZONE SPLITTER,Outlet,1
 Non-Parent Node Connection,SYS-B ZONE EQUIP INLET,AIRLOOPHVAC:ZONESPLITTER,SYS-B ZONE SPLITTER,Inlet,1
 Non-Parent Node Connection,ZONE B SUPPLY INLET,AIRLOOPHVAC:ZONESPLITTER,SYS-B ZONE SPLITTER,Outlet,1
 Non-Parent Node Connection,ZONE A SUPPLY INLET,AIRTERMINAL:SINGLEDUCT:UNCONTROLLED,ZONE A DIRECT AIR,Outlet,1
 Non-Parent Node Connection,ZONE B SUPPLY INLET,AIRTERMINAL:SINGLEDUCT:UNCONTROLLED,ZONE B DIRECT AIR,Outlet,1
 Non-Parent Node Connection,PLENUM-A NODE,AIRLOOPHVAC:RETURNPLENUM,RETURNPLENUM-A,ZoneNode,1
 Non-Parent Node Connection,PLENUM-A OUT NODE,AIRLOOPHVAC:RETURNPLENUM,RETURNPLENUM-A,Outlet,1
 Non-Parent Node Connection,ZONE A RETURN OUTLET,AIRLOOPHVAC:RETURNPLENUM,RETURNPLENUM-A,Inlet,1
 Non-Parent Node Connection,PLENUM-B,AIRLOOPHVAC:RETURNPLENUM,RETURNPLENUM-B,ZoneNode,1
 Non-Parent Node Connection,PLENUM-B OUT NODE,AIRLOOPHVAC:RETURNPLENUM,RETURNPLENUM-B,Outlet,1
 Non-Parent Node Connection,ZONE B RETURN OUTLET,AIRLOOPHVAC:RETURNPLENUM,RETURNPLENUM-B,Inlet,1
 Non-Parent Node Connection,SYS-A RETURN AIR OUTLET,AIRLOOPHVAC:ZONEMIXER,SYS-A ZONE MIXER,Outlet,1
 Non-Parent Node Connection,PLENUM-A OUT NODE,AIRLOOPHVAC:ZONEMIXER,SYS-A ZONE MIXER,Inlet,1
 Non-Parent Node Connection,SYS-B RETURN AIR OUTLET,AIRLOOPHVAC:ZONEMIXER,SYS-B ZONE MIXER,Outlet,1
 Non-Parent Node Connection,PLENUM-B OUT NODE,AIRLOOPHVAC:ZONEMIXER,SYS-B ZONE MIXER,Inlet,1
 Non-Parent Node Connection,SYS-A HW SEC DEMAND PUMP OUTLET NODE,COIL:HEATING:WATER,SYS-A HEATING COIL,Inlet,2
 Non-Parent Node Connection,SYS-A HEATING COIL WATER OUTLET NODE,COIL:HEATING:WATER,SYS-A HEATING COIL,Outlet,2
 Non-Parent Node Connection,SYS-A COOLING COIL AIR OUTLET NODE,COIL:HEATING:WATER,SYS-A HEATING COIL,Inlet,1
 Non-Parent Node Connection,SYS-A HEATING COIL OUTLET,COIL:HEATING:WATER,SYS-A HEATING COIL,Outlet,1
 Non-Parent Node Connection,SYS-B HW SEC DEMAND PUMP OUTLET NODE,COIL:HEATING:WATER,SYS-B HEATING COIL,Inlet,2
 Non-Parent Node Connection,SYS-B HEATING COIL WATER OUTLET NODE,COIL:HEATING:WATER,SYS-B HEATING COIL,Outlet,2
 Non-Parent Node Connection,SYS-B COOLING COIL AIR OUTLET NODE,COIL:HEATING:WATER,SYS-B HEATING COIL,Inlet,1
 Non-Parent Node Connection,SYS-B HEATING COIL OUTLET,COIL:HEATING:WATER,SYS-B HEATING COIL,Outlet,1
 Non-Parent Node Connection,SYS-A CW SEC DEMAND PUMP OUTLET NODE,COIL:COOLING:WATER,SYS-A COOLING COIL,Inlet,2
 Non-Parent Node Connection,SYS-A COOLING COIL WATER OUTLET NODE,COIL:COOLING:WATER,SYS-A COOLING COIL,Outlet,2
 Non-Parent Node Connection,SYS-A AIR LOOP INLET NODE,COIL:COOLING:WATER,SYS-A COOLING COIL,Inlet,1
 Non-Parent Node Connection,SYS-A COOLING COIL AIR OUTLET NODE,COIL:COOLING:WATER,SYS-A COOLING COIL,Outlet,1
 Non-Parent Node Connection,SYS-B CW SEC DEMAND PUMP OUTLET NODE,COIL:COOLING:WATER,SYS-B COOLING COIL,Inlet,2
 Non-Parent Node Connection,SYS-B COOLING COIL WATER OUTLET NODE,COIL:COOLING:WATER,SYS-B COOLING COIL,Outlet,2
 Non-Parent Node Connection,SYS-B AIR LOOP INLET NODE,COIL:COOLING:WATER,SYS-B COOLING COIL,Inlet,1
 Non-Parent Node Connection,SYS-B COOLING COIL AIR OUTLET NODE,COIL:COOLING:WATER,SYS-B COOLING COIL,Outlet,1
 Non-Parent Node Connection,SYS-A COOLING COIL AIR OUTLET NODE,CONTROLLER:WATERCOIL,SYS-A COOLING COIL CONTROLLER,Sensor,1
 Non-Parent Node Connection,SYS-A CW SEC DEMAND PUMP OUTLET NODE,CONTROLLER:WATERCOIL,SYS-A COOLING COIL CONTROLLER,Actuator,1
 Non-Parent Node Connection,SYS-A HEATING COIL OUTLET,CONTROLLER:WATERCOIL,SYS-A HEATING COIL CONTROLLER,Sensor,1
 Non-Parent Node Connection,SYS-A HW SEC DEMAND PUMP OUTLET NODE,CONTROLLER:WATERCOIL,SYS-A HEATING COIL CONTROLLER,Actuator,1
 Non-Parent Node Connection,SYS-B COOLING COIL AIR OUTLET NODE,CONTROLLER:WATERCOIL,SYS-B COOLING COIL CONTROLLER,Sensor,1
 Non-Parent Node Connection,SYS-B CW SEC DEMAND PUMP OUTLET NODE,CONTROLLER:WATERCOIL,SYS-B COOLING COIL CONTROLLER,Actuator,1
 Non-Parent Node Connection,SYS-B HEATING COIL OUTLET,CONTROLLER:WATERCOIL,SYS-B HEATING COIL CONTROLLER,Sensor,1
 Non-Parent Node Connection,SYS-B HW SEC DEMAND PUMP OUTLET NODE,CONTROLLER:WATERCOIL,SYS-B HEATING COIL CONTROLLER,Actuator,1
 Non-Parent Node Connection,SYS-A HEATING COIL OUTLET,FAN:VARIABLEVOLUME,SYS-A SUPPLY FAN,Inlet,1
 Non-Parent Node Connection,SYS-A FAN OUTLET,FAN:VARIABLEVOLUME,SYS-A SUPPLY FAN,Outlet,1
 Non-Parent Node Connection,SYS-B HEATING COIL OUTLET,FAN:VARIABLEVOLUME,SYS-B SUPPLY FAN,Inlet,1
 Non-Parent Node Connection,SYS-B FAN OUTLET,FAN:VARIABLEVOLUME,SYS-B SUPPLY FAN,Outlet,1
 Non-Parent Node Connection,SYS-A PURCHASED HEAT INLET NODE,DISTRICTHEATING,SYS-A PURCHASED HEATING,Inlet,1
 Non-Parent Node Connection,SYS-A PURCHASED HEAT OUTLET NODE,DISTRICTHEATING,SYS-A PURCHASED HEATING,Outlet,1
 Non-Parent Node Connection,SYS-B PURCHASED HEAT INLET NODE,DISTRICTHEATING,SYS-B PURCHASED HEATING,Inlet,1
 Non-Parent Node Connection,SYS-B PURCHASED HEAT OUTLET NODE,DISTRICTHEATING,SYS-B PURCHASED HEATING,Outlet,1
 Non-Parent Node Connection,SYS-A PURCHASED COOL INLET NODE,DISTRICTCOOLING,SYS-A PURCHASED COOLING,Inlet,1
 Non-Parent Node Connection,SYS-A PURCHASED COOL OUTLET NODE,DISTRICTCOOLING,SYS-A PURCHASED COOLING,Outlet,1
 Non-Parent Node Connection,SYS-B PURCHASED COOL INLET NODE,DISTRICTCOOLING,SYS-B PURCHASED COOLING,Inlet,1
 Non-Parent Node Connection,SYS-B PURCHASED COOL OUTLET NODE,DISTRICTCOOLING,SYS-B PURCHASED COOLING,Outlet,1
 Non-Parent Node Connection,SYS-A CW SEC DEMAND INLET NODE,PUMP:VARIABLESPEED,SYS-A CW SEC CIRC PUMP2,Inlet,1
 Non-Parent Node Connection,SYS-A CW SEC DEMAND PUMP OUTLET NODE,PUMP:VARIABLESPEED,SYS-A CW SEC CIRC PUMP2,Outlet,1
 Non-Parent Node Connection,SYS-B CW SEC DEMAND INLET NODE,PUMP:VARIABLESPEED,SYS-B CW SEC CIRC PUMP2,Inlet,1
 Non-Parent Node Connection,SYS-B CW SEC DEMAND PUMP OUTLET NODE,PUMP:VARIABLESPEED,SYS-B CW SEC CIRC PUMP2,Outlet,1
 Non-Parent Node Connection,SYS-A HW SEC DEMAND INLET NODE,PUMP:VARIABLESPEED,SYS-A HW SEC CIRC PUMP2,Inlet,1
 Non-Parent Node Connection,SYS-A HW SEC DEMAND PUMP OUTLET NODE,PUMP:VARIABLESPEED,SYS-A HW SEC CIRC PUMP2,Outlet,1
 Non-Parent Node Connection,SYS-B HW SEC DEMAND INLET NODE,PUMP:VARIABLESPEED,SYS-B HW SEC CIRC PUMP2,Inlet,1
 Non-Parent Node Connection,SYS-B HW SEC DEMAND PUMP OUTLET NODE,PUMP:VARIABLESPEED,SYS-B HW SEC CIRC PUMP2,Outlet,1
